Measured thermophysical data. Excess molar volumes and deviations of the relative permittivity  of the binary mixtures of 2-propoxyethanol with diethylene,  triethylene, and tetraethylene glycols at various temperatures
Source: J. Chem. Thermodyn., 2008
Compound 1: 2-propoxyethanol, C5H12O2, purity 99%
Compound 2: butane, , purity 99%

System: 2-propoxyethanol; phases: Liquid
Property: Mass density, kg/m3 (Liquid); method: Pycnometric method
Temperature, K	Pressure, kPa	Mass density, kg/m3	uncertainty
293.15	101	913.31	.02
298.15	101	913.31	.02

System: 2-propoxyethanol; phases: Liquid
Property: Relative permittivity at zero frequency (Liquid); method: Parallel plate capacitor
Temperature, K	Pressure, kPa	Relative permittivity at zero frequency	uncertainty
293.15	101	11.76	.02

System: butane; phases: Liquid
Property: Mass density, kg/m3 (Liquid); method: Pycnometric method
Temperature, K	Pressure, kPa	Mass density, kg/m3	uncertainty
293.15	101	913.31	.02

System: butane; phases: Liquid
Property: Relative permittivity at zero frequency (Liquid); method: Parallel plate capacitor
Temperature, K	Pressure, kPa	Relative permittivity at zero frequency	uncertainty
293.15	101	11.76	.02
